Version 4
SHEET 1 880 680
WIRE 784 -128 208 -128
WIRE 352 -16 320 -16
WIRE 448 -16 432 -16
WIRE -80 96 -96 96
WIRE 32 96 0 96
WIRE 112 96 32 96
WIRE 208 96 208 -128
WIRE 208 96 192 96
WIRE 320 96 320 -16
WIRE 320 96 208 96
WIRE 352 96 320 96
WIRE 448 96 448 -16
WIRE 448 96 432 96
WIRE 560 96 560 80
WIRE 560 96 448 96
WIRE 640 96 560 96
WIRE -96 160 -96 96
WIRE 32 160 32 96
WIRE 448 176 448 96
WIRE 640 176 640 96
WIRE 784 176 784 -128
WIRE -96 288 -96 240
WIRE 32 288 32 240
WIRE 32 288 -96 288
WIRE 176 288 32 288
WIRE 448 288 448 240
WIRE 448 288 176 288
WIRE 640 288 640 256
WIRE 640 288 448 288
WIRE 784 288 784 256
WIRE 784 288 640 288
WIRE 176 352 176 288
FLAG 176 352 0
SYMBOL res 208 80 R90
WINDOW 0 0 56 VBottom 2
WINDOW 3 32 56 VTop 2
SYMATTR InstName R1
SYMATTR Value 3255
SYMBOL res 48 256 R180
WINDOW 0 36 76 Left 2
WINDOW 3 36 40 Left 2
SYMATTR InstName R2
SYMATTR Value 9974k
SYMBOL res 656 272 R180
WINDOW 0 36 76 Left 2
WINDOW 3 36 40 Left 2
SYMATTR InstName R3
SYMATTR Value 10732k
SYMBOL res 800 272 R180
WINDOW 0 36 76 Left 2
WINDOW 3 36 40 Left 2
SYMATTR InstName R4
SYMATTR Value 9974k
SYMBOL cap 432 176 R0
SYMATTR InstName C1
SYMATTR Value 89µ
SYMBOL ind 448 80 R90
WINDOW 0 5 56 VBottom 2
WINDOW 3 32 56 VTop 2
SYMATTR InstName L1
SYMATTR Value 0.99
SYMBOL res 448 -32 R90
WINDOW 0 0 56 VBottom 2
WINDOW 3 32 56 VTop 2
SYMATTR InstName R5
SYMATTR Value 998
SYMBOL res 16 80 R90
WINDOW 0 0 56 VBottom 2
WINDOW 3 32 56 VTop 2
SYMATTR InstName R6
SYMATTR Value 44.6
SYMBOL voltage -96 144 R0
WINDOW 123 24 124 Left 2
WINDOW 39 0 0 Left 2
SYMATTR Value2 AC 5
SYMATTR InstName V1
SYMATTR Value 5
TEXT -128 376 Left 2 !.ac dec 10 1 100000
